units(length='cm', time='s', quantity='mol', act_energy='kcal/mol')

ideal_gas(name='gas',
          elements="H D T C Ci O Oi N Ne Ar He Si S Cl X",
          species="""N2               O2               HO2
                     OH               galdol           disub_c4ether
                     ipropylOOH       propene3ol       propene1ol
                     galkene          gQOOHa           galdoxy
                     CH2O             gQOOHb           gRO2
                     disub_epoxy      gQOOHg           H2O
                     gQOOH[O]         monosub_c4ether  gR
                     NO               NO2              [O]CC(CO)C
                     OOCC(CO)C        NO2OCC(CO)C      OOCC(C(O[O])O)C
                     OCC(O[O])(COO)C  OOCC(C=O)C       O=CC(C)C=O
                     OOCC(CO)CO[O]    O=CC(C)C(OO)O    O=CC(CO)COO
                     OCC(OO)(C=O)C    CC=C             [CH2]O
                     [CH3]            OCC=C""",
          reactions='all',
          initial_state=state(temperature=300.0, pressure=OneAtm))

#-------------------------------------------------------------------------------
# Element data
#-------------------------------------------------------------------------------

element(symbol='Ci', atomic_mass=13.003)
element(symbol='D', atomic_mass=2.014)
element(symbol='Oi', atomic_mass=18.0)
element(symbol='T', atomic_mass=3.016)
element(symbol='X', atomic_mass=195.083)
#-------------------------------------------------------------------------------
# Species data
#-------------------------------------------------------------------------------

species(name='N2',
        atoms='N:2',
        thermo=(NASA([200.00, 1000.00],
                     [ 3.53100528E+00, -1.23660988E-04, -5.02999433E-07,
                       2.43530612E-09, -1.40881235E-12, -1.04697628E+03,
                       2.96747038E+00]),
                NASA([1000.00, 6000.00],
                     [ 2.95257637E+00,  1.39690040E-03, -4.92631603E-07,
                       7.86010195E-11, -4.60755204E-15, -9.23948688E+02,
                       5.87188762E+00])),
        note='G8/02')

species(name='O2',
        atoms='O:2',
        thermo=(NASA([10.00, 602.43],
                     [ 3.50748772E+00, -4.48692620E-04,  1.48880797E-06,
                       1.62197189E-09, -2.36304373E-12, -8.51084188E+02,
                       4.72182257E+00]),
                NASA([602.43, 3000.00],
                     [ 2.87464715E+00,  2.19184887E-03, -1.19817865E-06,
                       2.93139381E-10, -2.61716816E-14, -7.46503140E+02,
                       7.68935315E+00])))

species(name='HO2',
        atoms='H:1 O:2',
        thermo=(NASA([10.00, 885.15],
                     [ 4.02894066E+00, -1.76996300E-03,  1.10109281E-05,
                      -1.16002276E-08,  4.00244301E-12,  5.19626533E+02,
                       3.99966755E+00]),
                NASA([885.15, 3000.00],
                     [ 3.06782973E+00,  4.30268893E-03, -2.21059882E-06,
                       5.65052127E-10, -5.69005814E-14,  6.22023708E+02,
                       8.13652602E+00])))

species(name='OH',
        atoms='H:1 O:1',
        thermo=(NASA([10.00, 979.12],
                     [ 3.49684487E+00,  1.86102286E-04, -1.01422955E-06,
                       1.60382175E-09, -6.27266311E-13,  3.37114560E+03,
                       1.48086725E+00]),
                NASA([979.12, 3000.00],
                     [ 3.44642893E+00, -2.81438037E-04,  7.33838060E-07,
                      -2.88945694E-10,  3.53963060E-14,  3.41330187E+03,
                       1.88789156E+00])))

species(name='galdol',
        atoms='C:4 H:8 O:2',
        thermo=(NASA([10.00, 507.63],
                     [ 3.85237747E+00,  9.29401811E-03,  1.87434311E-04,
                      -3.97900303E-07,  2.56238257E-10, -4.71191327E+04,
                       1.24254018E+01]),
                NASA([507.63, 3000.00],
                     [ 1.51643079E+00,  5.68135607E-02, -3.90065095E-05,
                       1.24574847E-08, -1.49444232E-12, -4.72570791E+04,
                       1.84165583E+01])))

species(name='disub_c4ether',
        atoms='C:4 H:8 O:2',
        thermo=(NASA([10.00, 407.86],
                     [ 3.78507197E+00,  1.87955268E-02,  8.94490839E-05,
                      -1.88374655E-07,  1.20084201E-10, -4.03125828E+04,
                       1.09953522E+01]),
                NASA([407.86, 3000.00],
                     [ 4.33275732E-01,  5.16681760E-02, -3.14500162E-05,
                       9.24444339E-09, -1.04979023E-12, -4.00391753E+04,
                       2.41597723E+01])))

species(name='ipropylOOH',
        atoms='C:3 H:7 O:2',
        thermo=(NASA([10.00, 403.57],
                     [ 3.29176494E+00,  7.69503355E-02, -3.42857383E-04,
                       8.25194011E-07, -6.86738508E-10, -7.10269351E+02,
                       1.31718471E+01]),
                NASA([403.57, 3000.00],
                     [ 2.54308938E+00,  3.74169643E-02, -2.14030543E-05,
                       5.89620094E-09, -6.29984544E-13, -2.67466040E+02,
                       2.08417711E+01])))

species(name='propene3ol',
        atoms='C:3 H:6 O:1',
        thermo=(NASA([10.00, 448.61],
                     [ 3.92628664E+00,  4.97268426E-03,  1.13214084E-04,
                      -2.58327046E-07,  1.84631359E-10, -1.72740564E+04,
                       9.90650179E+00]),
                NASA([448.61, 3000.00],
                     [ 2.64055021E+00,  3.02938237E-02, -1.77844777E-05,
                       5.20112757E-09, -5.98275060E-13, -1.72981331E+04,
                       1.35247004E+01])))

species(name='propene1ol',
        atoms='C:3 H:6 O:1',
        thermo=(NASA([10.00, 460.99],
                     [ 3.91140412E+00,  5.91755424E-03,  1.15805577E-04,
                      -2.68630384E-07,  1.91802207E-10, -2.01749177E+04,
                       8.14783936E+00]),
                NASA([460.99, 3000.00],
                     [ 3.15618028E+00,  2.96815364E-02, -1.75204786E-05,
                       5.16653686E-09, -5.99718053E-13, -2.02881664E+04,
                       9.22299822E+00])))

species(name='galkene',
        atoms='C:4 H:8 O:1',
        thermo=(NASA([10.00, 387.25],
                     [ 3.83841567E+00,  1.21170168E-02,  1.87231715E-04,
                      -5.40223824E-07,  4.72604673E-10, -2.21505495E+04,
                       1.02575065E+01]),
                NASA([387.25, 3000.00],
                     [ 4.03675385E+00,  3.80667460E-02, -2.17357656E-05,
                       6.22884536E-09, -7.07962276E-13, -2.23758443E+04,
                       6.77821785E+00])))

species(name='gQOOHa',
        atoms='C:4 H:9 O:3',
        thermo=(NASA([10.00, 164.33],
                     [ 3.80046380E+00,  2.37859062E-02,  5.10629352E-04,
                      -2.96363325E-06,  5.62396992E-09, -2.58700778E+04,
                       1.18516262E+01]),
                NASA([164.33, 3000.00],
                     [ 2.88868474E+00,  6.53961195E-02, -4.64235910E-05,
                       1.53030606E-08, -1.89454548E-12, -2.58663270E+04,
                       1.38062072E+01])))

species(name='galdoxy',
        atoms='C:4 H:7 O:2',
        thermo=(NASA([10.00, 211.22],
                     [ 3.82385698E+00,  1.86750585E-02,  3.39840714E-04,
                      -1.79726521E-06,  2.91095300E-09, -1.91827485E+04,
                       1.18051856E+01]),
                NASA([211.22, 3000.00],
                     [ 4.20893267E+00,  4.06420667E-02, -2.39575640E-05,
                       6.87052093E-09, -7.67533480E-13, -1.92642817E+04,
                       9.00114354E+00])))

species(name='CH2O',
        atoms='C:1 H:2 O:1',
        thermo=(NASA([10.00, 598.40],
                     [ 4.03213702E+00, -1.95246809E-03,  9.06052389E-06,
                       2.90374014E-09, -8.00192487E-12, -1.44621889E+04,
                       3.47540472E+00]),
                NASA([598.40, 3000.00],
                     [ 1.39745875E+00,  9.55813676E-03, -4.49995360E-06,
                       9.73600564E-10, -7.75616227E-14, -1.40376396E+04,
                       1.57460000E+01])))

species(name='gQOOHb',
        atoms='C:4 H:9 O:3',
        thermo=(NASA([10.00, 1031.15],
                     [ 4.00049180E+00,  4.36133863E-02,  2.04954601E-05,
                      -5.37803914E-08,  2.16720247E-11, -2.44637806E+04,
                       1.19665958E+01]),
                NASA([1031.15, 3000.00],
                     [ 1.43406690E+01,  3.79016216E-02, -2.12358477E-05,
                       5.55214664E-09, -5.56660647E-13, -2.84250444E+04,
                      -4.71037479E+01])))

species(name='gRO2',
        atoms='C:4 H:9 O:3',
        thermo=(NASA([10.00, 177.69],
                     [ 3.70358143E+00,  3.52736759E-02,  4.59554608E-04,
                      -3.14709975E-06,  6.28551578E-09, -2.93032972E+04,
                       1.24560448E+01]),
                NASA([177.69, 3000.00],
                     [ 4.79383034E+00,  5.21343160E-02, -3.23048868E-05,
                       9.71350928E-09, -1.12863208E-12, -2.94074028E+04,
                       7.24065974E+00])))

species(name='disub_epoxy',
        atoms='C:4 H:8 O:2',
        thermo=(NASA([10.00, 549.96],
                     [ 3.89714330E+00,  6.06354166E-03,  1.67641292E-04,
                      -3.13088795E-07,  1.79827917E-10, -3.74868337E+04,
                       1.13770886E+01]),
                NASA([549.96, 3000.00],
                     [-5.94904487E-01,  6.07430460E-02, -4.15218708E-05,
                       1.32265912E-08, -1.58641717E-12, -3.73255564E+04,
                       2.73369728E+01])))

species(name='gQOOHg',
        atoms='C:4 H:9 O:3',
        thermo=(NASA([10.00, 480.23],
                     [ 3.41861719E+00,  5.01270948E-02,  6.36784828E-05,
                      -2.45531700E-07,  1.93571448E-10, -2.18245957E+04,
                       1.41593787E+01]),
                NASA([480.23, 3000.00],
                     [ 6.03296566E+00,  5.53891675E-02, -3.72113809E-05,
                       1.17679185E-08, -1.40946810E-12, -2.23874651E+04,
                       2.18174229E-01])))

species(name='H2O',
        atoms='H:2 O:1',
        thermo=(NASA([10.00, 773.03],
                     [ 4.00481153E+00, -2.43880824E-04,  8.38305271E-07,
                       1.47049421E-09, -1.20403369E-12, -3.04527299E+04,
                      -9.97793336E-02]),
                NASA([773.03, 3000.00],
                     [ 3.51218495E+00,  1.08649358E-03,  6.21585169E-07,
                      -3.81979345E-10,  5.45967817E-14, -3.03401536E+04,
                       2.38556104E+00])))

species(name='gQOOH[O]',
        atoms='C:4 H:9 O:3',
        thermo=(NASA([10.00, 535.75],
                     [ 3.82915502E+00,  1.03434567E-02,  2.30306674E-04,
                      -4.61380876E-07,  2.79190849E-10, -1.93549850E+04,
                       1.40974638E+01]),
                NASA([535.75, 3000.00],
                     [-3.76034797E-01,  7.71608077E-02, -5.59410597E-05,
                       1.82204898E-08, -2.19386358E-12, -1.94127341E+04,
                       2.70165146E+01])))

species(name='monosub_c4ether',
        atoms='C:4 H:8 O:2',
        thermo=(NASA([10.00, 377.90],
                     [ 3.46930983E+00,  6.20801626E-02, -2.92343988E-04,
                       8.69934244E-07, -8.36450080E-10, -3.34947617E+04,
                       1.06900260E+01]),
                NASA([377.90, 3000.00],
                     [-1.20040150E+00,  5.40666172E-02, -3.25316566E-05,
                       9.35808708E-09, -1.03710837E-12, -3.27316701E+04,
                       3.41012454E+01])))

species(name='gR',
        atoms='C:4 H:9 O:1',
        thermo=(NASA([10.00, 640.67],
                     [ 3.36945982E+00,  5.17650438E-02, -6.42919500E-05,
                       6.62207061E-08, -3.05944358E-11, -1.19040600E+04,
                       1.14370448E+01]),
                NASA([640.67, 3000.00],
                     [ 4.03744503E+00,  4.07645467E-02, -2.25456211E-05,
                       6.14077552E-09, -6.57228231E-13, -1.18494803E+04,
                       9.60575657E+00])))

species(name='NO',
        atoms='N:1 O:1',
        thermo=(NASA([100.00, 1362.53],
                     [ 3.92009885E+00, -2.42938422E-03,  5.61057627E-06,
                      -3.93200453E-09,  9.21652641E-13,  9.87241068E+03,
                       3.51689271E+00]),
                NASA([1362.53, 5000.00],
                     [ 3.33324812E+00,  1.21025044E-03, -5.06476207E-07,
                       9.34767158E-11, -6.39599359E-15,  9.85440467E+03,
                       5.87671981E+00])))

species(name='NO2',
        atoms='N:1 O:2',
        thermo=(NASA([100.00, 1037.20],
                     [ 3.95231078E+00, -1.18804196E-03,  1.40893018E-05,
                      -1.59174572E-08,  5.43084104E-12,  2.89085688E+03,
                       6.22185387E+00]),
                NASA([1037.20, 5000.00],
                     [ 4.87884663E+00,  2.21045747E-03, -9.08107040E-07,
                       2.02795082E-10, -1.67145448E-14,  2.32365260E+03,
                      -8.97556031E-02])))

species(name='[O]CC(CO)C',
        atoms='C:4 H:9 O:2',
        thermo=(NASA([100.00, 1542.72],
                     [ 4.45330187E+00,  3.99759293E-02, -1.56854485E-05,
                       6.71245165E-10,  6.62552025E-13, -2.99935824E+04,
                       1.11945190E+01]),
                NASA([1542.72, 5000.00],
                     [ 1.45610382E+01,  2.30865538E-02, -8.32395343E-06,
                       1.40532676E-09, -9.08819861E-14, -3.42211187E+04,
                      -4.55454823E+01])))

species(name='OOCC(CO)C',
        atoms='C:4 H:10 O:3',
        thermo=(NASA([100.00, 1416.39],
                     [ 2.05515339E+00,  6.78598808E-02, -5.25393314E-05,
                       2.14333393E-08, -3.55886997E-12, -4.83311202E+04,
                       2.07816646E+01]),
                NASA([1416.39, 5000.00],
                     [ 1.57970489E+01,  2.90516750E-02, -1.14402840E-05,
                       2.08884285E-09, -1.44470197E-13, -5.22238988E+04,
                      -5.02987546E+01])))

species(name='NO2OCC(CO)C',
        atoms='C:4 H:9 N:1 O:4',
        thermo=(NASA([100.00, 1409.24],
                     [ 3.17406484E+00,  6.81094964E-02, -4.53198389E-05,
                       1.37725080E-08, -1.39544316E-12, -4.74168677E+04,
                       1.85692339E+01]),
                NASA([1409.24, 5000.00],
                     [ 2.18246513E+01,  2.48197709E-02, -9.51176839E-06,
                       1.69110421E-09, -1.14053377E-13, -5.36315503E+04,
                      -8.12063402E+01])))

species(name='OOCC(C(O[O])O)C',
        atoms='C:4 H:9 O:5',
        thermo=(NASA([100.00, 847.47],
                     [-7.18509807E-01,  1.07460611E-01, -1.41724501E-04,
                       1.06027800E-07, -3.24723553E-11, -4.53107145E+04,
                       3.58639250E+01]),
                NASA([847.47, 5000.00],
                     [ 1.15725054E+01,  4.43518417E-02, -2.10038457E-05,
                       3.96688123E-09, -2.71729898E-13, -4.72109668E+04,
                      -2.03192712E+01])))

species(name='OCC(O[O])(COO)C',
        atoms='C:4 H:9 O:5',
        thermo=(NASA([100.00, 788.05],
                     [-7.10857240E-01,  1.15923882E-01, -1.64660825E-04,
                       1.27811019E-07, -3.97167475E-11, -4.45445754E+04,
                       3.34498720E+01]),
                NASA([788.05, 5000.00],
                     [ 1.45128864E+01,  3.86479159E-02, -1.75655619E-05,
                       3.36803486E-09, -2.37086822E-13, -4.69438970E+04,
                      -3.63691030E+01])))

species(name='OOCC(C=O)C',
        atoms='C:4 H:8 O:3',
        thermo=(NASA([100.00, 1511.64],
                     [ 2.87352485E+00,  5.69132849E-02, -4.12367250E-05,
                       1.54564161E-08, -2.36554728E-12, -3.87180618E+04,
                       1.71957045E+01]),
                NASA([1511.64, 5000.00],
                     [ 1.44973690E+01,  2.61550016E-02, -1.07152390E-05,
                       1.99574415E-09, -1.39373461E-13, -4.22322697E+04,
                      -4.36855217E+01])))

species(name='O=CC(C)C=O',
        atoms='C:4 H:6 O:2',
        thermo=(NASA([100.00, 1063.44],
                     [ 3.25820402E+00,  2.61593995E-02,  1.52023607E-05,
                      -3.17516461E-08,  1.19913158E-11, -3.79817472E+04,
                       1.63436547E+01]),
                NASA([1063.44, 5000.00],
                     [ 9.37717995E+00,  2.34747726E-02, -9.68862206E-06,
                       1.83052377E-09, -1.29827413E-13, -4.04327996E+04,
                      -1.89584556E+01])))

species(name='OOCC(CO)CO[O]',
        atoms='C:4 H:9 O:5',
        thermo=(NASA([100.00, 789.28],
                     [ 3.88045914E-01,  1.04262417E-01, -1.39681541E-04,
                       1.06002098E-07, -3.26767900E-11, -4.05826738E+04,
                       3.13488283E+01]),
                NASA([789.28, 5000.00],
                     [ 1.29647807E+01,  4.05248417E-02, -1.85507809E-05,
                       3.68909491E-09, -2.69815700E-13, -4.25679926E+04,
                      -2.63505986E+01])))

species(name='O=CC(C)C(OO)O',
        atoms='C:4 H:8 O:4',
        thermo=(NASA([100.00, 1103.40],
                     [ 1.58464744E+00,  7.48590148E-02, -7.18839876E-05,
                       3.73153597E-08, -7.99328372E-12, -6.26960447E+04,
                       2.48402177E+01]),
                NASA([1103.40, 5000.00],
                     [ 1.31066696E+01,  3.30896454E-02, -1.51009791E-05,
                       3.00728403E-09, -2.19980875E-13, -6.52387117E+04,
                      -3.18805454E+01])))

species(name='O=CC(CO)COO',
        atoms='C:4 H:8 O:4',
        thermo=(NASA([100.00, 1079.26],
                     [ 2.98087596E+00,  6.98857574E-02, -6.67545244E-05,
                       3.53823990E-08, -7.76124378E-12, -5.79991817E+04,
                       1.90827136E+01]),
                NASA([1079.26, 5000.00],
                     [ 1.32379842E+01,  3.18705561E-02, -1.39196212E-05,
                       2.74601603E-09, -2.01372657E-13, -6.02132070E+04,
                      -3.11843087E+01])))

species(name='OCC(OO)(C=O)C',
        atoms='C:4 H:8 O:4',
        thermo=(NASA([100.00, 989.05],
                     [ 4.23537448E-01,  8.90979588E-02, -1.03018232E-04,
                       6.32191728E-08, -1.55275098E-11, -5.94904902E+04,
                       2.68004675E+01]),
                NASA([989.05, 5000.00],
                     [ 1.51108303E+01,  2.96986950E-02, -1.29334072E-05,
                       2.49806392E-09, -1.79254367E-13, -6.23957999E+04,
                      -4.38956002E+01])))

species(name='CC=C',
        atoms='C:3 H:6',
        thermo=(NASA([200.00, 1000.00],
                     [ 3.83464468E+00,  3.29078952E-03,  5.05228001E-05,
                      -6.66251176E-08,  2.63707473E-11,  7.88717123E+02,
                       7.53408013E+00]),
                NASA([1000.00, 6000.00],
                     [ 6.03870234E+00,  1.62963931E-02, -5.82130800E-06,
                       9.35936829E-10, -5.58603143E-14, -7.41715057E+02,
                      -8.43825992E+00])),
        note='g2/00')

species(name='[CH2]O',
        atoms='C:1 H:3 O:1',
        thermo=(NASA([200.00, 1000.00],
                     [ 4.47834367E+00, -1.35070310E-03,  2.78484980E-05,
                      -3.64869060E-08,  1.47907450E-11, -3.50072890E+03,
                       3.30913500E+00]),
                NASA([1000.00, 6000.00],
                     [ 5.09314370E+00,  5.94761260E-03, -2.06497460E-06,
                       3.23008173E-10, -1.88125902E-14, -4.03409640E+03,
                      -1.84691493E+00])),
        note='iu2/03')

species(name='[CH3]',
        atoms='C:1 H:3',
        thermo=(NASA([200.00, 1000.00],
                     [ 3.65717970E+00,  2.12659790E-03,  5.45838830E-06,
                      -6.61810030E-09,  2.46570740E-12,  1.64227160E+04,
                       1.67353540E+00]),
                NASA([1000.00, 6000.00],
                     [ 2.97812060E+00,  5.79785200E-03, -1.97558000E-06,
                       3.07297900E-10, -1.79174160E-14,  1.65095130E+04,
                       4.72247990E+00])),
        note='iu0702')

species(name='OCC=C',
        atoms='C:3 H:6 O:1',
        thermo=(NASA([200.00, 1000.00],
                     [ 3.15011905E+00,  1.28538274E-02,  4.28438434E-05,
                      -6.67818707E-08,  2.80408237E-11, -1.66413668E+04,
                       1.35066359E+01]),
                NASA([1000.00, 6000.00],
                     [ 8.72477114E+00,  1.63942712E-02, -5.90852993E-06,
                       9.53262253E-10, -5.70318010E-14, -1.90496618E+04,
                      -1.97198674E+01])),
        note='t06/10')

#-------------------------------------------------------------------------------
# Reaction data
#-------------------------------------------------------------------------------
#  added bimolecular, atmospheric reactions
#  atkinson 1997 with C5 compound

# Reaction 1
pdep_arrhenius('NO + gRO2 <=> NO2 + [O]CC(CO)C',
               [(0.009869, 'atm'), 1.628e+12, 0.000,     -0.713],
               [(0.098692, 'atm'), 2.396e+12, -0.053,    -0.656],
               [(0.986923, 'atm'), 9.699e+12, -0.246,    -0.460],
               [(9.869233, 'atm'), 2.642e+14, -0.706,    -0.022],
               [(98.692327, 'atm'), 2.303e+15, -1.009,    0.256])
#  ho2 abstraction of peroxy radicals
#  atkinson 1997 for neopentyl

# Reaction 2
reaction('HO2 + gRO2 <=> O2 + OOCC(CO)C', [1.15201e+11, 0.0, -2.583])
#  atkinson 1997 with C5 compound

# Reaction 3
pdep_arrhenius('NO + gRO2 <=> NO2OCC(CO)C',
               [(0.009869, 'atm'), 4.428e+33, -8.505,    3.364],
               [(0.098692, 'atm'), 1.836e+32, -8.043,    2.009],
               [(0.986923, 'atm'), 7.693e+43, -11.940,   4.002],
               [(9.869233, 'atm'), 5.451e+43, -11.980,   3.270],
               [(98.692327, 'atm'), 5.494e+42, -11.675,   2.827])
#  add O2 addition reactions to QOOH isomers
#  from Miyoshi 2011 for primary secondary and tertiary carbons

# Reaction 4
reaction('O2 + gQOOHa <=> OOCC(C(O[O])O)C', [3.486740e+14, 0.816, -0.5346])

# Reaction 5
reaction('O2 + gQOOHg <=> OOCC(CO)CO[O]', [6.870000e+16, 1.627, 0.198])

# Reaction 6
reaction('O2 + gQOOHb <=> OCC(O[O])(COO)C', [9.760000e+11, 0.325, -0.4158])
#  decomposition of KHP pathway
#  isomerization OOQOOH estimated from reaction R21 of Yao et al. JPCA 2017, 121 (16), 3001. doi:10.1021/acs.jpca.6b10818

# Reaction 7
reaction('OOCC(C(O[O])O)C <=> OH + O=CC(C)C(OO)O', [6.300000e+03, 2.58, 14.1])
#  R21

# Reaction 8
reaction('OOCC(CO)CO[O] <=> OH + O=CC(CO)COO', [6.300000e+03, 2.58, 14.1])
#  R21

# Reaction 9
reaction('OCC(O[O])(COO)C <=> OH + OCC(OO)(C=O)C', [4.460000e-11, 6.91, 16.6])
#  R12
#  decomposition forming HO2, from Goldman et al. high pressure rate for alpha-RO2 decomposition

# Reaction 10
reaction('OOCC(C(O[O])O)C <=> HO2 + OOCC(C=O)C', [9.931000e+09, 0.816, 10.181])
#  hydrogen abstractions from alkoxy radicals to form carbonyl compounds
#  from atkinson 1997 for primary alkoxy radical reaction with O2

# Reaction 11
reaction('O2 + gQOOH[O] <=> HO2 + OOCC(C=O)C', [3.600000e+10, 0.0, 1.084])

# Reaction 12
reaction('O2 + galdoxy <=> HO2 + O=CC(C)C=O', [3.600000e+10, 0.0, 1.084])

# Reaction 13
reaction('O2 + [O]CC(CO)C <=> HO2 + galdol', [3.600000e+10, 0.0, 1.084])
#  hydrogen abstractions from alpha-hydroxy radicals to form carbonyl compounds
#  from Sarathy butanol mechanism

# Reaction 14
reaction('O2 + gQOOHa <=> HO2 + OOCC(C=O)C', [3.780000e+20, -2.429, 3.09])
#  gamma-i-butanol decomposition
#  taken from Sarathy butanol mechanism

# Reaction 15
reaction('[CH2]O + CC=C <=> gR', [9.450000e+02, 2.67, 6.85])
# ref henry ch3 addition to c3h6 to produce ic4h9 ;half the value of pre-exponential factor of methyl addition to propene

# Reaction 16
reaction('[CH3] + OCC=C <=> gR', [1.890000e+03, 2.67, 6.85])
# ref henry methyl addition to c3h6 to produce ic4h9
#  using curran 2006 not reverse fit (from RMG's NIST database)
# gR<=>[CH2]O+CC=C 9.59e11 0.77 30.7
# gR<=>[CH3]+OCC=C 9.59e11 0.77 30.7
#  no major difference between the two values
#  Reaction index: Chemkin #104; RMG #1
#  Library reaction: Unclassified

# Reaction 17
chebyshev_reaction('gQOOH[O] (+ M) <=> gRO2 (+ M)',
                   Tmin=180.0, Tmax=1500.0,
                   Pmin=(0.01, 'atm'), Pmax=(98.692, 'atm'),
                   coeffs=[[ 5.18800e+00,  1.49800e+00, -1.48100e-01, -1.60700e-02,  2.53700e-03,  2.20000e-03,  1.38700e-04, -1.55300e-04],
                           [-5.04300e+00,  7.38300e-01,  9.74000e-02, -4.97500e-03, -6.90100e-03,  9.23000e-05,  1.04100e-03,  1.32100e-04],
                           [-3.29500e+00, -1.72800e-01, -3.09700e-02,  1.91300e-02,  8.27200e-03,  1.03700e-03, -7.32100e-04, -3.15500e-04],
                           [-1.64200e+00, -6.87400e-02, -5.01400e-02, -1.03800e-02,  3.51900e-03,  3.02100e-03,  4.07300e-04, -3.42800e-04],
                           [-8.10300e-01,  4.47200e-02,  1.61000e-02, -1.49500e-04, -1.32700e-03, -6.88500e-04, -4.83400e-05,  9.93800e-05],
                           [-4.48500e-01, -9.56900e-03,  3.02100e-02,  1.26700e-02,  2.88300e-03, -6.45600e-04, -7.92700e-04, -1.63900e-04],
                           [-2.72400e-01, -4.86100e-02,  2.23300e-03,  3.57700e-03,  3.32200e-03,  1.11400e-03,  1.33800e-05, -1.41400e-04],
                           [-1.34600e-01, -6.48600e-02, -8.54100e-03, -3.21400e-03, -1.13400e-03,  4.19400e-04,  4.40600e-04,  1.80700e-04],
                           [-5.36400e-02, -4.18600e-02, -9.22500e-03, -2.37900e-03, -1.42100e-03, -4.60800e-04, -5.92100e-06,  1.03300e-04],
                           [-1.48000e-02, -2.27300e-02, -1.01200e-02, -5.92200e-04,  1.00700e-04,  2.30100e-04, -1.25900e-05, -9.96400e-05]])
#  Reaction index: Chemkin #105; RMG #2
#  Library reaction: Unclassified

# Reaction 18
chebyshev_reaction('gQOOHa (+ M) <=> gRO2 (+ M)',
                   Tmin=180.0, Tmax=1500.0,
                   Pmin=(0.01, 'atm'), Pmax=(98.692, 'atm'),
                   coeffs=[[ 2.34700e+00,  6.88200e-01, -2.31900e-02,  2.60000e-03,  1.53200e-03, -9.47100e-05, -5.75100e-05,  2.48100e-06],
                           [ 5.94200e-01,  1.10500e+00,  1.92300e-04,  1.99100e-03,  2.37200e-03, -7.03400e-05, -6.98300e-05, -1.85100e-05],
                           [-2.71400e+00,  5.07900e-01,  7.58900e-02,  2.79200e-03, -1.44800e-04,  2.05200e-04, -2.48700e-07, -5.11300e-05],
                           [-1.82800e+00, -9.38500e-03,  8.88900e-02,  1.34000e-02, -1.79200e-03, -7.31300e-05,  6.57700e-05, -5.26300e-05],
                           [-1.07300e+00, -2.29800e-01,  3.54900e-02,  2.06900e-02,  2.16900e-04, -6.92700e-04, -2.73400e-05, -7.06400e-06],
                           [-5.19400e-01, -2.07200e-01, -2.09800e-02,  1.36900e-02,  3.46200e-03, -5.23000e-04, -2.56200e-04,  2.42900e-05],
                           [-1.97500e-01, -1.02100e-01, -3.65500e-02, -5.34600e-04,  3.46600e-03,  4.81800e-04, -2.57700e-04, -4.45100e-06],
                           [-5.98900e-02, -2.47400e-02, -1.91800e-02, -8.05100e-03,  5.35500e-05,  1.03600e-03,  1.17800e-04, -1.92500e-05],
                           [-3.39000e-02, -5.68500e-04,  8.41500e-04, -4.71700e-03, -2.77600e-03,  4.25000e-04,  4.77400e-04,  5.02300e-05],
                           [ 1.87000e-03, -7.87500e-03,  5.35200e-03,  2.59500e-03, -2.11200e-03, -5.44500e-04,  3.86800e-04,  1.21700e-04]])
#  Reaction index: Chemkin #106; RMG #3
#  Library reaction: Unclassified

# Reaction 19
chebyshev_reaction('gQOOHg (+ M) <=> gRO2 (+ M)',
                   Tmin=180.0, Tmax=1500.0,
                   Pmin=(0.01, 'atm'), Pmax=(98.692, 'atm'),
                   coeffs=[[ 4.08400e+00,  8.23800e-01, -4.43400e-02,  1.06700e-02,  1.27400e-04, -2.57000e-04, -7.14700e-05,  1.73500e-05],
                           [-2.10800e+00,  1.23000e+00, -4.51100e-03,  7.24000e-03,  1.81800e-03, -5.76600e-04, -1.03600e-04, -1.01900e-05],
                           [-2.97800e+00,  4.10800e-01,  1.02400e-01,  1.44900e-03, -3.23100e-04,  1.86100e-04, -1.53700e-04, -7.13900e-05],
                           [-1.96800e+00, -1.46300e-01,  8.38800e-02,  1.76400e-02, -2.46400e-03, -1.04700e-04,  2.27900e-05, -9.75200e-05],
                           [-9.78200e-01, -2.51200e-01, -4.39000e-03,  2.27000e-02,  1.50200e-03, -1.07000e-03, -3.75900e-06,  1.44300e-05],
                           [-4.07900e-01, -1.27300e-01, -4.52200e-02,  4.91800e-03,  5.21300e-03, -2.42500e-04, -3.10900e-04,  8.96200e-05],
                           [-1.71400e-01, -1.92900e-02, -1.97800e-02, -1.06400e-02,  1.95000e-03,  1.47500e-03, -1.22700e-04, -1.55100e-05],
                           [-1.02100e-01, -3.73200e-03,  1.45900e-02, -6.39300e-03, -3.51200e-03,  1.25400e-03,  5.29100e-04, -7.43200e-05],
                           [-5.77300e-02, -3.62900e-02,  1.62200e-02,  6.91200e-03, -3.45100e-03, -6.46200e-04,  6.18800e-04,  5.64900e-05],
                           [-3.97000e-02, -5.63400e-02, -7.63000e-03,  1.10600e-02,  1.46400e-03, -1.43400e-03, -1.21400e-04,  1.38400e-04]])
#  Reaction index: Chemkin #107; RMG #4
#  Library reaction: Unclassified

# Reaction 20
chebyshev_reaction('gQOOHb (+ M) <=> gRO2 (+ M)',
                   Tmin=180.0, Tmax=1500.0,
                   Pmin=(0.01, 'atm'), Pmax=(98.692, 'atm'),
                   coeffs=[[-6.64000e-01,  1.02500e+00,  3.54000e-02, -9.69000e-03, -3.95400e-03,  1.23000e-04,  3.93400e-04,  1.88000e-05],
                           [ 1.12400e+00,  1.50500e+00,  9.85400e-02, -1.33500e-02, -4.25300e-03, -1.79400e-04,  4.64500e-04,  1.29700e-05],